Version 4
SHEET 1 1880 836
WIRE 384 -176 288 -176
WIRE 496 -176 496 -208
WIRE 496 -176 384 -176
WIRE 496 -144 496 -176
WIRE 288 -128 288 -176
WIRE 384 -128 384 -176
WIRE 288 -16 288 -64
WIRE 384 -16 384 -64
WIRE 496 -16 496 -64
WIRE 1376 0 1376 -48
WIRE 1376 0 1264 0
WIRE 1376 48 1376 0
WIRE 880 80 880 32
WIRE 1264 96 1264 0
WIRE 880 176 880 160
WIRE 880 176 768 176
WIRE 768 192 768 176
WIRE 1376 192 1376 128
WIRE 1440 192 1376 192
WIRE 1536 192 1504 192
WIRE 880 208 880 176
WIRE 1184 224 1168 224
WIRE 1264 224 1264 176
WIRE 1264 224 1248 224
WIRE 1376 240 1376 192
WIRE 768 272 768 256
WIRE 1264 288 1264 224
WIRE 1328 288 1264 288
WIRE 880 320 880 288
WIRE 880 320 768 320
WIRE 928 320 880 320
WIRE 1040 320 992 320
WIRE 1152 320 1040 320
WIRE 1328 320 1152 320
WIRE 768 352 768 320
WIRE 1040 384 1040 320
WIRE 1152 384 1152 320
WIRE 1264 384 1264 288
WIRE 1376 384 1376 336
WIRE 880 400 880 320
WIRE 768 464 768 416
WIRE 832 464 768 464
WIRE 880 512 880 496
WIRE 976 512 880 512
WIRE 768 528 768 464
WIRE 880 544 880 512
WIRE 1040 544 1040 448
WIRE 1152 544 1152 464
WIRE 1152 544 1040 544
WIRE 1264 544 1264 464
WIRE 1264 544 1152 544
WIRE 1376 544 1376 464
WIRE 1376 544 1264 544
WIRE 976 560 976 512
WIRE 1264 576 1264 544
WIRE 768 688 768 608
WIRE 880 688 880 624
WIRE 880 688 768 688
WIRE 976 688 976 624
WIRE 976 688 880 688
WIRE 880 720 880 688
FLAG 384 -16 0
FLAG 1264 576 0
FLAG 1376 -48 Vdd
FLAG 880 32 Vdd
FLAG 768 272 0
FLAG 1168 224 voice
FLAG 496 -208 Vdd
FLAG 496 -16 0
FLAG 288 -16 0
FLAG 1536 192 out
FLAG 880 720 0
SYMBOL res 1136 368 R0
SYMATTR InstName R1
SYMATTR Value 10k
SYMBOL res 1360 368 R0
SYMATTR InstName R2
SYMATTR Value 330
SYMBOL cap 368 -128 R0
SYMATTR InstName C8
SYMATTR Value 10n
SYMATTR SpiceLine Rser=0.4
SYMBOL cap 1504 176 R90
WINDOW 0 0 32 VBottom 2
WINDOW 3 32 32 VTop 2
SYMATTR InstName C6
SYMATTR Value 1n
SYMBOL xdgnmos 1328 240 R0
SYMATTR InstName U1
SYMATTR SpiceModel BF981
SYMBOL njf 832 400 R0
SYMATTR InstName J1
SYMATTR Value 2N3819
SYMBOL res 752 512 R0
SYMATTR InstName R3
SYMATTR Value 100k
SYMBOL Misc\\xtal 752 352 R0
SYMATTR InstName Xtal
SYMATTR Value 17f
SYMATTR SpiceLine Rser=30 Lser=2m Cpar=0.87p
SYMBOL ind 864 192 R0
WINDOW 3 30 11 Left 2
SYMATTR Value 10µ
SYMATTR InstName L1
SYMBOL res 864 64 R0
SYMATTR InstName R4
SYMATTR Value 390
SYMBOL cap 752 192 R0
WINDOW 0 31 11 Left 2
SYMATTR InstName C1
SYMATTR Value 10n
SYMATTR SpiceLine Rser=0.4
SYMBOL res 864 528 R0
SYMATTR InstName R5
SYMATTR Value 470
SYMBOL cap 960 560 R0
SYMATTR InstName C2
SYMATTR Value 10n
SYMATTR SpiceLine Rser=1
SYMBOL cap 992 304 R90
WINDOW 0 0 32 VBottom 2
WINDOW 3 32 32 VTop 2
SYMATTR InstName C3
SYMATTR Value 22p
SYMATTR SpiceLine Rser=0.4
SYMBOL ind 1360 32 R0
SYMATTR InstName L2
SYMATTR Value 560nH
SYMBOL res 1248 368 R0
SYMATTR InstName R6
SYMATTR Value 47k
SYMBOL Misc\\battery 496 -160 R0
WINDOW 123 0 0 Left 0
WINDOW 39 0 0 Left 0
SYMATTR InstName V1
SYMATTR Value 12
SYMBOL polcap 272 -128 R0
SYMATTR InstName C7
SYMATTR Value 100µ
SYMBOL cap 1184 240 R270
WINDOW 0 32 32 VTop 2
WINDOW 3 0 32 VBottom 2
SYMATTR InstName C5
SYMATTR Value 330n
SYMBOL res 1248 80 R0
SYMATTR InstName R7
SYMATTR Value 100k
SYMBOL cap 1056 448 R180
WINDOW 0 -22 52 Left 2
WINDOW 3 -33 4 Left 2
SYMATTR InstName C4
SYMATTR Value 10p
SYMATTR SpiceLine Rser=0.4
TEXT 1512 744 Left 2 !.tran 0 1.6m 1.5m 100n startup
TEXT 1392 296 Left 2 ;BF966
TEXT 664 384 Left 2 ;27MHz
