Version 4
SHEET 1 1832 836
WIRE 384 -176 288 -176
WIRE 496 -176 496 -208
WIRE 496 -176 384 -176
WIRE 496 -144 496 -176
WIRE 288 -128 288 -176
WIRE 384 -128 384 -176
WIRE 288 -16 288 -64
WIRE 384 -16 384 -64
WIRE 496 -16 496 -64
WIRE 1280 0 1280 -48
WIRE 1280 0 1168 0
WIRE 1280 48 1280 0
WIRE 880 80 880 32
WIRE 1168 96 1168 0
WIRE 880 176 880 160
WIRE 880 176 768 176
WIRE 768 192 768 176
WIRE 1280 192 1280 128
WIRE 1344 192 1280 192
WIRE 1440 192 1408 192
WIRE 880 208 880 176
WIRE 1088 224 1072 224
WIRE 1168 224 1168 176
WIRE 1168 224 1152 224
WIRE 1280 240 1280 192
WIRE 768 272 768 256
WIRE 1168 288 1168 224
WIRE 1232 288 1168 288
WIRE 880 320 880 288
WIRE 880 320 768 320
WIRE 944 320 880 320
WIRE 1056 320 1008 320
WIRE 1232 320 1056 320
WIRE 768 352 768 320
WIRE 1056 384 1056 320
WIRE 1168 384 1168 288
WIRE 1280 384 1280 336
WIRE 880 400 880 320
WIRE 768 464 768 416
WIRE 832 464 768 464
WIRE 880 512 880 496
WIRE 976 512 880 512
WIRE 768 528 768 464
WIRE 880 544 880 512
WIRE 1056 544 1056 464
WIRE 1168 544 1168 464
WIRE 1168 544 1056 544
WIRE 1280 544 1280 464
WIRE 1280 544 1168 544
WIRE 976 560 976 512
WIRE 1168 576 1168 544
WIRE 880 672 880 624
WIRE 768 784 768 608
WIRE 880 784 880 752
WIRE 880 784 768 784
WIRE 976 784 976 624
WIRE 976 784 880 784
WIRE 880 816 880 784
FLAG 384 -16 0
FLAG 1168 576 0
FLAG 1280 -48 Vdd
FLAG 880 32 Vdd
FLAG 768 272 0
FLAG 1072 224 voice
FLAG 496 -208 Vdd
FLAG 496 -16 0
FLAG 288 -16 0
FLAG 1440 192 out
FLAG 880 816 0
SYMBOL res 1040 368 R0
SYMATTR InstName R1
SYMATTR Value 10k
SYMBOL res 1264 368 R0
SYMATTR InstName R2
SYMATTR Value 330
SYMBOL cap 368 -128 R0
SYMATTR InstName C1
SYMATTR Value 10n
SYMATTR SpiceLine Rser=0.4
SYMBOL cap 1408 176 R90
WINDOW 0 0 32 VBottom 2
WINDOW 3 32 32 VTop 2
SYMATTR InstName C2
SYMATTR Value 1n
SYMBOL xdgnmos 1232 240 R0
SYMATTR InstName U1
SYMATTR SpiceModel BF981
SYMBOL njf 832 400 R0
SYMATTR InstName J1
SYMATTR Value 2N3819
SYMBOL res 752 512 R0
SYMATTR InstName R3
SYMATTR Value 100k
SYMBOL Misc\\xtal 752 352 R0
SYMATTR InstName C3
SYMATTR Value 17f
SYMATTR SpiceLine Rser=30 Lser=2m Cpar=0.87p
SYMBOL ind 864 192 R0
WINDOW 3 30 11 Left 2
SYMATTR Value 47µH
SYMATTR InstName L1
SYMBOL res 864 64 R0
SYMATTR InstName R4
SYMATTR Value 390
SYMBOL cap 752 192 R0
WINDOW 0 31 11 Left 2
SYMATTR InstName C4
SYMATTR Value 10n
SYMATTR SpiceLine Rser=0.4
SYMBOL res 864 528 R0
SYMATTR InstName R5
SYMATTR Value 220
SYMBOL cap 960 560 R0
SYMATTR InstName C5
SYMATTR Value 10n
SYMATTR SpiceLine Rser=1
SYMBOL cap 1008 304 R90
WINDOW 0 0 32 VBottom 2
WINDOW 3 32 32 VTop 2
SYMATTR InstName C6
SYMATTR Value 22p
SYMATTR SpiceLine Rser=0.4
SYMBOL ind 1264 32 R0
SYMATTR InstName L2
SYMATTR Value 560nH
SYMBOL res 1152 368 R0
SYMATTR InstName R6
SYMATTR Value 47k
SYMBOL Misc\\battery 496 -160 R0
WINDOW 123 0 0 Left 0
WINDOW 39 0 0 Left 0
SYMATTR InstName V1
SYMATTR Value 12
SYMBOL polcap 272 -128 R0
SYMATTR InstName C7
SYMATTR Value 100µ
SYMBOL cap 1088 240 R270
WINDOW 0 32 32 VTop 2
WINDOW 3 0 32 VBottom 2
SYMATTR InstName C8
SYMATTR Value 220n
SYMBOL res 1152 80 R0
SYMATTR InstName R7
SYMATTR Value 470k
SYMBOL res 864 656 R0
WINDOW 0 -74 31 Left 2
SYMATTR InstName POT1
SYMATTR Value 300
TEXT 1200 672 Left 2 !.tran 0 1.6m 1.5m 100n startup
TEXT 1296 296 Left 2 ;BF964
